Version 4
SHEET 1 880 680
WIRE 224 64 224 0
WIRE 224 192 224 144
WIRE 304 192 224 192
WIRE 336 192 304 192
WIRE 224 256 224 192
WIRE 176 336 0 336
WIRE 0 352 0 336
WIRE 224 432 224 352
WIRE 0 480 0 432
FLAG 224 432 0
FLAG 224 -80 0
FLAG 0 480 0
FLAG 304 192 OUT
SYMBOL voltage 224 16 R180
WINDOW 0 24 96 Left 2
WINDOW 3 24 16 Left 2
WINDOW 123 0 0 Left 0
WINDOW 39 0 0 Left 0
SYMATTR InstName V1
SYMATTR Value 5V
SYMBOL voltage 0 336 R0
WINDOW 3 -171 191 Left 2
WINDOW 123 0 0 Left 0
WINDOW 39 0 0 Left 0
SYMATTR InstName V2
SYMATTR Value PULSE(0 5 0 30ns 30ns 2ms 4ms)
SYMBOL nmos 176 256 R0
SYMATTR InstName M1
SYMATTR Value AONS32100
SYMBOL res 208 48 R0
SYMATTR InstName R1
SYMATTR Value 1kR
TEXT -165 561 Left 2 !.tran 10ms
