Version 4
SHEET 1 880 680
WIRE 336 48 336 16
WIRE 288 64 144 64
WIRE 144 144 144 64
WIRE 144 144 96 144
WIRE 96 176 96 144
WIRE 336 176 336 144
WIRE 544 176 336 176
WIRE 336 192 336 176
WIRE 144 272 144 144
WIRE 288 272 144 272
WIRE 336 336 336 288
FLAG 336 -64 0
FLAG 336 336 0
FLAG 96 256 0
FLAG 544 176 OUT
IOPIN 544 176 Out
SYMBOL nmos 288 192 R0
SYMATTR InstName M1
SYMATTR Value AONS32100
SYMBOL pmos 288 144 M180
SYMATTR InstName M2
SYMATTR Value AON7423
SYMBOL voltage 336 32 R180
WINDOW 0 24 96 Left 2
WINDOW 3 24 16 Left 2
WINDOW 123 0 0 Left 0
WINDOW 39 0 0 Left 0
SYMATTR InstName V1
SYMATTR Value 5V
SYMBOL voltage 96 160 R0
WINDOW 3 -193 145 Left 2
WINDOW 123 0 0 Left 0
WINDOW 39 0 0 Left 0
SYMATTR InstName V2
SYMATTR Value PULSE(0 5 0 10ns 10ns 2ms 4ms)
TEXT 64 336 Left 2 !.tran 50ms
